CPLD_ic1960_zstar_notides
1960 01 1 0 0 0
#output files
#"ice_month",            5, "days", 1, "days", "time",
"ocean_month%4yr%2mo",          1,  "months", 1, "days", "time", 1,"months", "1900 01 1 0 0 0"
#"coupler_month",        5, "days", 1, "days", "time",
"ocean_surf%4yr%2mo",           1, "hours", 1, "hours", "time", 1,"months", "1900 01 1 0 0 0"
"ocean_scalar%4yr%2mo",         1, "months", 1, "days", "time", 1,"months", "1900 01 1 0 0 0"
"ocean_tides%4yr%2mo", 		1, "months", 1, "days", "time", 1,"months", "1900 01 1 0 0 0"
#"ocean_residency_month",2, "days", 1, "days", "time",

#"", 2, "days", 1, "days", "time",
#
#output variables
#==================
# OCEAN DIAGNOSTICS
#==================
#
## grid quantities
# "ocean_model","area_t","area_t","ocean_month","all",.false.,"none",2
# "ocean_model","area_u","area_u","ocean_month","all",.false.,"none",2
#
 "ocean_model","dzt","dht","ocean_month%4yr%2mo","all",.false.,"none",2
 "ocean_model","rho_dzt","rho_dht","ocean_month%4yr%2mo","all",.false.,"none",2
# "ocean_model","dzu","dhu","ocean_month","all",.false.,"none",2
# "ocean_model","dst","dst","ocean_month","all",.false.,"none",2
#
# "ocean_model","geolat_c","geolat_c","ocean_month","all",.false.,"none",2
# "ocean_model","geolon_c","geolon_c","ocean_month","all",.false.,"none",2
# "ocean_model","geolat_t","geolat_t","ocean_month","all",.false.,"none",2
# "ocean_model","geolon_t","geolon_t","ocean_month","all",.false.,"none",2
 "ocean_model","ht","ht","ocean_month%4yr%2mo","all",.false.,"none",2
 "ocean_model","hu","hu","ocean_month%4yr%2mo","all",.false.,"none",2

# "ocean_model","geolat_c","geolat_c","ocean_surf","all",.false.,"none",2
# "ocean_model","geolon_c","geolon_c","ocean_surf","all",.false.,"none",2
# "ocean_model","geolat_t","geolat_t","ocean_surf","all",.false.,"none",2
# "ocean_model","geolon_t","geolon_t","ocean_surf","all",.false.,"none",2

#
#=============================================================================================
#
## scalars
#"ocean_model","total_ocean_river","total_ocean_river","ocean_scalar","all",.false.,"none",2
#"ocean_model","total_ocean_evap","total_ocean_evap","ocean_scalar","all",.false.,"none",2
#"ocean_model","total_ocean_pme_sbc","total_ocean_pme_sbc","ocean_scalar","all",.false.,"none",2
#"ocean_model","total_ocean_fprec","total_ocean_fprec","ocean_scalar","all",.false.,"none",2
#"ocean_model","total_ocean_lprec","total_ocean_lprec","ocean_scalar","all",.false.,"none",2
#"ocean_model","total_ocean_calving","total_ocean_calving","ocean_scalar","all",.false.,"none",2
#"ocean_model","total_ocean_runoff","total_ocean_runoff","ocean_scalar","all",.false.,"none",2
 "ocean_model","total_ocean_salt","salt_total","ocean_scalar%4yr%2mo","all",.false.,"none",2
 "ocean_model","total_ocean_heat","temp_total","ocean_scalar%4yr%2mo","all",.false.,"none",2
 "ocean_model","ke_tot","ke_tot","ocean_scalar%4yr%2mo","all",.false.,"none",2
 "ocean_model","pe_tot","pe_tot","ocean_scalar%4yr%2mo","all",.false.,"none",2
 "ocean_model","eta_nonbouss_global","eta_nonbouss_global","ocean_scalar%4yr%2mo","all",.false.,"none",2
# "ocean_model","eta_steric_global","eta_steric_global","ocean_scalar%4yr%2mo","all",.false.,"none",2
# "ocean_model","eta_nonsteric_global","eta_nonsteric_global","ocean_scalar%4yr%2mo","all",.false.,"none",2
#
## energy balance terms
# "ocean_model","temp_xflux_adv","temp_xflux_adv","ocean_month","all",.false.,"none",2
# "ocean_model","temp_yflux_adv","temp_yflux_adv","ocean_month","all",.false.,"none",2
# "ocean_model","temp_zflux_adv","temp_zflux_adv","ocean_month","all",.false.,"none",2
# "ocean_model","salt_xflux_adv","salt_xflux_adv","ocean_month","all",.false.,"none",2
# "ocean_model","salt_yflux_adv","salt_yflux_adv","ocean_month","all",.false.,"none",2
# "ocean_model","salt_zflux_adv","salt_zflux_adv","ocean_month","all",.false.,"none",2
# "ocean_model","temp_vdiffuse_impl","temp_vdiff_impl","ocean_month","all",.false.,"none",2
# "ocean_model","salt_vdiffuse_impl","salt_vdiff_impl","ocean_month","all",.false.,"none",2
# "ocean_model","temp_totflux","temp_totflux","ocean_month","all",.false.,"none",2
#"ocean_model","salt_totflux","salt_totflux","ocean_month","all",.false.,"none",2
#"ocean_model","temp_th_tendency","temp_th_tendency","ocean_month","all",.false.,"none",2
#"ocean_model","salt_th_tendency","salt_th_tendency","ocean_month","all",.false.,"none",2
# "ocean_model","neutral_temp","neutral_temp","ocean_month","all",.false.,"none",2
# "ocean_model","neutral_salt","neutral_salt","ocean_month","all",.false.,"none",2
## prognostic fields
# "ocean_model","dzt","dht","ocean_surf","all",.false.,"none",2
 "ocean_model","eta_t","eta_t","ocean_surf%4yr%2mo","all",.false.,"none",2
# Australia
# "ocean_model","eta_t","eta_t","AU00_surf","all",.false.,"113.625 115.625 -33.125 -31.125 1 1 ",2
# "ocean_model","eta_t","eta_t","AU01_surf","all",.false.,"111.625 113.625 -25.875 -23.875 1 1 ",2
# "ocean_model","eta_t","eta_t","AU02_surf","all",.false.,"116.625 118.625 -20.375 -18.375 1 1 ",2
# "ocean_model","eta_t","eta_t","AU03_surf","all",.false.,"146.875 148.875 -19.375 -17.375 1 1 ",2
# "ocean_model","eta_t","eta_t","AU04_surf","all",.false.,"152.375 154.375 -25.125 -23.125 1 1 ",2
# "ocean_model","eta_t","eta_t","AU05_surf","all",.false.,"151.125 153.125 -35.375 -33.375 1 1 ",2
# "ocean_model","eta_t","eta_t","AU06_surf","all",.false.,"120.375 122.375 -18.125 -16.125 1 1 ",2
#Brazil
# "ocean_model","eta_t","eta_t","BR00_surf","all",.false.,"-47.875 -45.875 -27.125 -25.125 1 1 ",2
# "ocean_model","eta_t","eta_t","BR01_surf","all",.false.,"-43.125 -41.125 -24.875 -22.875 1 1 ",2
# "ocean_model","eta_t","eta_t","BR02_surf","all",.false.,"-44.375 -42.375 -2.625 -0.625 1 1 ",2
#WARM POOL
# "ocean_model","eta_t","eta_t","WAR00_surf","all",.false.,"-94.625 -92.625 27.375,29.375 1 1 ",2
#HIGHER TIDES
# "ocean_model","eta_t","eta_t","HT00_surf","all",.false.,"-63.625 -61.625 42.625 44.625 1 1 ",2
#EUROPE
# "ocean_model","eta_t","eta_t","EUR00_surf","all",.false.,"-23.875 -21.875 62.125 64.125 1 1 ",2

# "ocean_model","pbot_t","pbot_t","ocean_surf","all",.false.,"none",2
# "ocean_model","anompb","anompb","ocean_surf","all",.false.,"none",2
# "ocean_model","grad_anompbx","grad_anompbx","ocean_surf","all",.false.,"none",2
# "ocean_model","grad_anompby","grad_anompby","ocean_surf","all",.false.,"none",2
# "ocean_model","urhod","urhod","ocean_surf","all",.false.,"none",2
# "ocean_model","vrhod","vrhod","ocean_surf","all",.false.,"none",2
# "ocean_model","conv_rho_ud_t","conv_rho_ud_t","ocean_surf","all",.false.,"none",2
# "ocean_model","eta_nonbouss","eta_nonbouss","ocean_surf","all",.false.,"none",2
# "ocean_model","eta_nonsteric","eta_nonsteric","ocean_surf","all",.false.,"none",2
# "ocean_model","eta_steric","eta_steric","ocean_surf","all",.false.,"none",2
# "ocean_model","eta_tend","eta_tend","ocean_surf","all",.false.,"none",2
# "ocean_model","eta_dynamic_tend","eta_dynamic_tend","ocean_surf","all",.false.,"none",2
# "ocean_model","eta_water_tend","eta_water_tend","ocean_surf","all",.false.,"none",2
# "ocean_model","eta_steric_tend","eta_steric_tend","ocean_surf","all",.false.,"none",2
# "ocean_model","eta_t_mod","eta_t_mod","ocean_surf","all",.false.,"none",2
#
# "ocean_model","patm_t","patm_t","ocean_month","all",.false.,"none",2
# "ocean_model","pbot0","pbot0","ocean_month","all",.false.,"none",2
# "ocean_model","anompb","anompb","ocean_month","all",.false.,"none",2
# "ocean_model","pbot_t","pbot_t","ocean_month","all",.false.,"none",2
 "ocean_model","eta_t","eta_t","ocean_month%4yr%2mo","all",.false.,"none",2
# "ocean_model","eta_u","eta_u","ocean_month","all",.false.,"none",2
# "ocean_model","eta_nonbouss","eta_nonbouss%4yr%2mo","ocean_month","all",.false.,"none",2
# "ocean_model","eta_nonsteric","eta_nonsteric%4yr%2mo","ocean_month","all",.false.,"none",2
# "ocean_model","eta_steric","eta_steric","ocean_month","all",.false.,"none",2
# "ocean_model","eta_tend","eta_tend","ocean_month","all",.false.,"none",2
# "ocean_model","eta_dynamic_tend","eta_dynamic_tend","ocean_month","all",.false.,"none",2
# "ocean_model","eta_water_tend","eta_water_tend","ocean_month","all",.false.,"none",2
# "ocean_model","eta_steric_tend","eta_steric_tend","ocean_month","all",.false.,"none",2
# "ocean_model","eta_t_mod","eta_t_mod","ocean_month","all",.false.,"none",2
# "ocean_model","urhod","urhod","ocean_month","all",.false.,"none",2
# "ocean_model","vrhod","vrhod","ocean_month","all",.false.,"none",2
# "ocean_model","age_global","age_global","ocean_month%4yr%2mo","all",.false.,"none",2
 "ocean_model","salt","salt","ocean_month%4yr%2mo","all",.false.,"none",2
 "ocean_model","temp","temp","ocean_month%4yr%2mo","all",.false.,"none",2
# "ocean_model","con_temp","con_temp","ocean_month","all",.false.,"none",2
 "ocean_model","u","u","ocean_month%4yr%2mo","all",.false.,"none",2
 "ocean_model","v","v","ocean_month%4yr%2mo","all",.false.,"none",2
#
## diagnostic fields
# "ocean_model","hblt","hblt","ocean_month","all",.false.,"none",2
# "ocean_model","hblt","hblt_min","ocean_month","all",min,"none",2
# "ocean_model","hblt","hblt_max","ocean_month","all",max,"none",2
 "ocean_model","mld","mld","ocean_month%4yr%2mo","all",.false.,"none",2
# "ocean_model","neutral_rho","neutral_rho","ocean_month","all",.false.,"none",2
# "ocean_model","pot_rho_0","pot_rho_0","ocean_month","all",.false.,"none",2
# "ocean_model","potrho_mix_base","potrho_mix_base","ocean_month","all",.false.,"none",2
# "ocean_model","potrho_mix_depth","potrho_mix_depth","ocean_month","all",.false.,"none",2
# "ocean_model","press","press","ocean_month","all",.false.,"none",2
# "ocean_model","rho","rho","ocean_month","all",.false.,"none",2
# "ocean_model","wt","wt","ocean_month","all",.false.,"none",2
# "ocean_model","wrhot","wrhot","ocean_month","all",.false.,"none",2
#
## vertically-integrated fluxes
# "ocean_model","salt_adv_flux_x_int_z","salt_adv_flux_x_int_z","ocean_month","all",.false.,"none",2
# "ocean_model","salt_adv_flux_y_int_z","salt_adv_flux_y_int_z","ocean_month","all",.false.,"none",2
# "ocean_model","salt_xflux_neutral_int_z","salt_xflux_neutral_int_z","ocean_month","all",.false.,"none",2
# "ocean_model","salt_yflux_neutral_int_z","salt_yflux_neutral_int_z","ocean_month","all",.false.,"none",2
# "ocean_model","temp_adv_flux_x_int_z","temp_adv_flux_x_int_z","ocean_month","all",.false.,"none",2
# "ocean_model","temp_adv_flux_y_int_z","temp_adv_flux_y_int_z","ocean_month","all",.false.,"none",2
# "ocean_model","temp_xflux_neutral_int_z","temp_xflux_neutral_int_z","ocean_month","all",.false.,"none",2
# "ocean_model","temp_yflux_neutral_int_z","temp_yflux_neutral_int_z","ocean_month","all",.false.,"none",2
# "ocean_model","temp_sigma_diff_xflux","temp_xflux_sigma","ocean_month","all",.false.,"none",2
# "ocean_model","temp_sigma_diff_yflux","temp_yflux_sigma","ocean_month","all",.false.,"none",2
#"ocean_model","temp_xflux_ndiffuse_int_z","temp_xflux_ndiffuse_int_z", "ocean_month","all",.false.,"none",2
#"ocean_model","temp_yflux_ndiffuse_int_z","temp_yflux_ndiffuse_int_z", "ocean_month","all",.false.,"none",2
#"ocean_model","temp_xflux_gm_modes_int_z","temp_xflux_gm_modes_int_z", "ocean_month","all",.false.,"none",2
#"ocean_model","temp_yflux_gm_modes_int_z","temp_yflux_gm_modes_int_z", "ocean_month","all",.false.,"none",2
#
## surface flux quantities
# "ocean_model","frazil_2d","frazil_2d","ocean_month","all",.false.,"none",2
# "ocean_model","pme_sbc","pme_mass","ocean_month","all",.false.,"none",2
# "ocean_model","pme_velocity","pme","ocean_month","all",.false.,"none",2
# "ocean_model","river","river","ocean_month","all",.false.,"none",2
# "ocean_model","evap","evap","ocean_month","all",.false.,"none",2
# "ocean_model","fprec","fprec","ocean_month","all",.false.,"none",2
# "ocean_model","lprec","lprec","ocean_month","all",.false.,"none",2
# "ocean_model","calve","calve","ocean_month","all",.false.,"none",2
# "ocean_model","swflx","swflx","ocean_month","all",.false.,"none",2
# "ocean_model","evap_heat","evap_heat","ocean_month","all",.false.,"none",2
# "ocean_model","fprec_heat","fprec_heat","ocean_month","all",.false.,"none",2
# "ocean_model","calve_heat","calve_heat","ocean_month","all",.false.,"none",2
# "ocean_model","lw_heat","lw_heat","ocean_month","all",.false.,"none",2
 "ocean_model","sens_heat","sens_heat","ocean_month%4yr%2mo","all",.false.,"none",2
#"ocean_model","sfc_hflux","sfc_hflux","ocean_month","all",.false.,"none",2
# "ocean_model","sfc_salt_flux","sfc_salt_flux","ocean_month","all",.false.,"none",2
# "ocean_model","sfc_hflux_river","sfc_hflux_river","ocean_month","all",.false.,"none",2
# "ocean_model","sfc_hflux_pme","sfc_hflux_pme","ocean_month","all",.false.,"none",2
# "ocean_model","sfc_salt_flux_river","sfc_salt_flux_river","ocean_month","all",.false.,"none",2
 "ocean_model","tau_x","tau_x","ocean_month%4yr%2mo","all",.false.,"none",2
 "ocean_model","tau_y","tau_y","ocean_month%4yr%2mo","all",.false.,"none",2
# "ocean_model","tau_curl","tau_curl","ocean_month","all",.false.,"none",2
# "ocean_model","ekman_we","ekman_we","ocean_month","all",.false.,"none",2
#"ocean_model","frazil","frazil","ocean_month","all",.false.,"none",2
#"ocean_model","salt_rivermix","salt_rivermix","ocean_month","all",.false.,"none",2
#"ocean_model","temp_rivermix","temp_rivermix","ocean_month","all",.false.,"none",2
# --- Mabel ---
# "ocean_model","latent_heat_vapor","latent_heat_vapor","ocean_month","all",.false.,"none",2
# "ocean_model","latent_heat_fusion","latent_heat_fusion","ocean_month","all",.false.,"none",2
   

## mass transport
 "ocean_model","tx_trans","tx_trans","ocean_month%4yr%2mo","all",.false.,"none",2
 "ocean_model","ty_trans","ty_trans","ocean_month%4yr%2mo","all",.false.,"none",2
# "ocean_model","tx_trans_gm","tx_trans_gm","ocean_month","all",.false.,"none",2
# "ocean_model","ty_trans_gm","ty_trans_gm","ocean_month","all",.false.,"none",2
# "ocean_model","tx_trans_rho","tx_trans_rho","ocean_month","all",.false.,"none",2
# "ocean_model","ty_trans_rho","ty_trans_rho","ocean_month","all",.false.,"none",2
# "ocean_model","tx_trans_nrho","tx_trans_nrho","ocean_month","all",.false.,"none",2
# "ocean_model","ty_trans_nrho","ty_trans_nrho","ocean_month","all",.false.,"none",2
#
## mass transport quasi-streamfunction
# "ocean_model","psiu","psiu","ocean_month","all",.false.,"none",2
# "ocean_model","psiv","psiv","ocean_month","all",.false.,"none",2
#
## quasi-physical parameterizations
# "ocean_model","mass_xland","mass_xland","ocean_month","all",.false.,"none",2
# "ocean_model","mass_xlandinsert","mass_xlandinsert","ocean_month","all",.false.,"none",2
# "ocean_model","salt_xland","salt_xland","ocean_month","all",.false.,"none",2
# "ocean_model","salt_xlandinsert","salt_xlandinsert","ocean_month","all",.false.,"none",2
# "ocean_model","temp_xland","temp_xland","ocean_month","all",.false.,"none",2
# "ocean_model","temp_xlandinsert","temp_xlandinsert","ocean_month","all",.false.,"none",2
#"ocean_model","diff_cbt_table","diff_cbt_table","ocean_month","all",.false.,"none",2
#
## physical parameterizations
# "ocean_model","agm","agm","ocean_month","all",.false.,"none",2
# "ocean_model","buoy_freq","buoy_freq","ocean_month","all",.false.,"none",2
# "ocean_model","aiso_lap","aiso_lap","ocean_month","all",.false.,"none",2
# "ocean_model","convect_heating","convect_heating","ocean_month","all",.false.,"none",2
#"ocean_model","convect_salt","convect_salt","ocean_month","all",.false.,"none",2
# "ocean_model","diff_cbt_t","diff_cbt_t","ocean_month","all",.false.,"none",2
# "ocean_model","diff_cbt_wave","diff_cbt_wave","ocean_month","all",.false.,"none",2
# "ocean_model","diff_cbt_drag","diff_cbt_drag","ocean_month","all",.false.,"none",2
# "ocean_model","diff_cbt_back","diff_cbt_back","ocean_month","all",.false.,"none",2
#"ocean_model","aaniso_lap","aaniso_lap","ocean_month","all",.false.,"none",2
#"ocean_model","lap_fric_u","lap_fric_u","ocean_month","all",.false.,"none",2
#"ocean_model","lap_fric_v","lap_fric_v","ocean_month","all",.false.,"none",2
# "ocean_model","tidal_vel_amp","tidal_vel_amp","ocean_month","all",.false.,"none",2
#
# submesoscale parameterization fields
#"ocean_model","tx_trans_submeso","tx_trans_submeso","ocean_month","all",.false.,"none",2
#"ocean_model","ty_trans_submeso","ty_trans_submeso","ocean_month","all",.false.,"none",2
#"ocean_model","kblt_submeso","kblt_submeso","ocean_month","all",.false.,"none",2
#"ocean_model","temp_submeso","temp_submeso","ocean_month","all",.false.,"none",2
#"ocean_model","temp_yflux_submeso_int_z","temp_yflux_submeso_int_z","ocean_month","all",.false.,"none",2
#"ocean_model","wdian_rho_submeso","wdian_rho_submeso","ocean_month","all",.false.,"none",2
#
# form drag parameterization fields
#"ocean_model","form_drag_aiki_gradH_scale","form_drag_aiki_gradH_scale","ocean_month","all",.false.,"none",2
#"ocean_model","form_drag_aiki_u","form_drag_aiki_u","ocean_month","all",.false.,"none",2
#"ocean_model","form_drag_aiki_v","form_drag_aiki_v","ocean_month","all",.false.,"none",2
#"ocean_model","visc_cbu_form_drag_u","visc_cbu_form_drag_u","ocean_month","all",.false.,"none",2
#
## mixed layer ocean model diagnostics
# "ocean_model", "HFLX",            "HFLX",            "ocean_month","all",.false.,"none",2
# "ocean_model", "NET_HFLX",        "NET_HFLX",        "ocean_month","all",.false.,"none",2
# "ocean_model", "QFLUX_ADJ",       "QFLUX_ADJ",       "ocean_month","all",.false.,"none",2
# "ocean_model", "QFLX_RESTORE_SST","QFLX_RESTORE_SST","ocean_month","all",.false.,"none",2
# "ocean_model", "RFLX",            "RFLX",            "ocean_month","all",.false.,"none",2
# "ocean_model", "SST",             "SST",             "ocean_month","all",.false.,"none",2
# "ocean_model", "SST_OBS",         "SST_OBS",         "ocean_month","all",.false.,"none",2
#
#==========================================================================
# energetic related fields.
#
#"ocean_model","slopex_drhodx","slopex_drhodx","ocean_month",all,.false.,"none",2
#"ocean_model","slopey_drhody","slopey_drhody","ocean_month",all,.false.,"none",2
#"ocean_model","grav_agm_dv_sx_drhodx","grav_agm_dv_sx_drhodx","ocean_month",all,.false.,"none",2
#"ocean_model","grav_agm_dv_sy_drhody","grav_agm_dv_sy_drhody","ocean_month",all,.false.,"none",2
#"ocean_model","horz_lap_diss","horz_lap_diss","ocean_month",all,.false.,"none",2
#"ocean_model","vert_lap_diss","vert_lap_diss","ocean_month",all,.false.,"none",2
#"ocean_model","horz_bih_diss","horz_bih_diss","ocean_month",all,.false.,"none",2
#"ocean_model","wind_power_u","wind_power_u",      "ocean_month","all",.false.,"none",2
#"ocean_model","wind_power_v","wind_power_v",      "ocean_month","all",.false.,"none",2
#"ocean_model","bottom_power_u","bottom_power_u",  "ocean_month","all",.false.,"none",2
#"ocean_model","bottom_power_v","bottom_power_v",  "ocean_month","all",.false.,"none",2
#"ocean_model","u_dot_lapfrict_horz","u_dot_lapfrict_horz","ocean_month",all,.false.,"none",2
#"ocean_model","v_dot_lapfrict_horz","v_dot_lapfrict_horz","ocean_month",all,.false.,"none",2
#"ocean_model","u_dot_frict_vert","u_dot_frict_vert","ocean_month",all,.false.,"none",2
#"ocean_model","v_dot_frict_vert","v_dot_frict_vert","ocean_month",all,.false.,"none",2
#==========================================================================
# Ocean ocmip fields
#
#"ocean_model","dic_abiotic","dic_abiotic","ocean_month",all,.false.,"none",2
#"ocean_model","di14c_abiotic","di14c_abiotic","ocean_month",all,.false.,"none",2
#"ocean_ocmip2_abiotic","jdi14c_abiotic","jdi14c_abiotic","ocean_month",all,.false.,"none",2
#"ocean_ocmip2_abiotic","frac_14catm_abiotic","frac_14catm_abiotic","ocean_month","all",.false.,"none",2
#"ocean_ocmip2_abiotic","sfc_flux_co2_abiotic","sfc_flux_co2","ocean_month","all",.false.,"none",2
#"ocean_ocmip2_abiotic","sfc_flux_14co2_abiotic","sfc_flux_14co2","ocean_month","all",.false.,"none",2
#"ocean_ocmip2_abiotic","sc_co2_ocmip2_abiotic","sc_co2","ocean_month","all",.false.,"none",2
#"ocean_ocmip2_abiotic","htotal_abiotic","htotal","ocean_month","all",.false.,"none",2
#"ocean_ocmip2_abiotic","pco2surf_abiotic","pco2surf","ocean_month","all",.false.,"none",2
#"ocean_ocmip2_abiotic","alpha_abiotic","alpha","ocean_month","all",.false.,"none",2
#"ocean_ocmip2_abiotic","csurf_abiotic","csurf","ocean_month","all",.false.,"none",2
#"ocean_ocmip2_abiotic","alk_abiotic","alk","ocean_month","all",.false.,"none",2
#"ocean_ocmip2_abiotic","po4_abiotic","po4","ocean_month","all",.false.,"none",2
#"ocean_ocmip2_abiotic","sio4_abiotic","sio4","ocean_month","all",.false.,"none",2
#
#"ocean_model","cfc_11","cfc_11","ocean_month",all,.false.,"none",2
#"ocean_model","cfc_12","cfc_12","ocean_month","all",.false.,"none",2
#"ocean_ocmip2_cfc","sfc_flux_cfc_11","sfc_flux_cfc_11","ocean_month","all",.false.,"none",2
#"ocean_ocmip2_cfc","sfc_flux_cfc_12","sfc_flux_cfc_12","ocean_month","all",.false.,"none",2
#==========================================================================
# Ocean TOPAZ fields
#
#"ocean_model","nlg","nlg","ocean_topaz_month","all",.false.,"none",2
#"ocean_model","nlg_diatoms","nlg_diatoms","ocean_topaz_month","all",.false.,"none",2
#"ocean_model","nsm","nsm","ocean_topaz_month","all",.false.,"none",2
#"ocean_model","ndi","ndi","ocean_topaz_month","all",.false.,"none",2
#"ocean_model","silg","silg","ocean_topaz_month","all",.false.,"none",2
#"ocean_model","fedi","fedi","ocean_topaz_month","all",.false.,"none",2
#"ocean_model","felg","felg","ocean_topaz_month","all",.false.,"none",2
#"ocean_model","fesm","fesm","ocean_topaz_month","all",.false.,"none",2
#"ocean_model","lith","lith","ocean_topaz_month","all",.false.,"none",2
#"ocean_model","no3","no3","ocean_topaz_month","all",.false.,"none",2
#"ocean_model","nh4","nh4","ocean_topaz_month","all",.false.,"none",2
#"ocean_model","nhet","nhet","ocean_topaz_month","all",.false.,"none",2
#"ocean_model","pdi","pdi","ocean_topaz_month","all",.false.,"none",2
#"ocean_model","plg","plg","ocean_topaz_month","all",.false.,"none",2
#"ocean_model","psm","psm","ocean_topaz_month","all",.false.,"none",2
#"ocean_model","po4","po4","ocean_topaz_month","all",.false.,"none",2
#"ocean_model","fed","fed","ocean_topaz_month","all",.false.,"none",2
#"ocean_model","fep","fep","ocean_topaz_month","all",.false.,"none",2
#"ocean_model","sio4","sio4","ocean_topaz_month","all",.false.,"none",2
#"ocean_model","sdon","sdon","ocean_topaz_month","all",.false.,"none",2
#"ocean_model","sdop","sdop","ocean_topaz_month","all",.false.,"none",2
#"ocean_model","ldon","ldon","ocean_topaz_month","all",.false.,"none",2
#"ocean_model","o2","o2","ocean_topaz_month","all",.false.,"none",2
#"ocean_model","dic","dic","ocean_topaz_month","all",.false.,"none",2
#"ocean_model","alk","alk","ocean_topaz_month","all",.false.,"none",2
#"ocean_model","chl","chl","ocean_topaz_month","all",.false.,"none",2
#"ocean_model","irr","irr","ocean_topaz_month","all",.false.,"none",2
#"ocean_model","carbon_tot_vert_int","carbon_tot_vert_int","ocean_topaz_month","all",.false.,"none",2
#"ocean_model","o2_saturation","o2_saturation","ocean_topaz_month","all",.false.,"none",2
#"ocean_model","csurf","csurf","ocean_topaz_month","all",.false.,"none",2
#"ocean_model","htotal","htotal","ocean_topaz_month","all",.false.,"none",2
#"ocean_model","co3_ion","co3_ion","ocean_topaz_month","all",.false.,"none",2
#"ocean_model","co3_solubility","co3_solubility","ocean_topaz_month","all",.false.,"none",2
#"ocean_model","pco2surf","pco2surf","ocean_topaz_month","all",.false.,"none",2
#"ocean_model","runoff_flux_alk","runoff_flux_alk","ocean_topaz_month","all",.false.,"none",2
#"ocean_model","runoff_flux_dic","runoff_flux_dic","ocean_topaz_month","all",.false.,"none",2
#"ocean_model","runoff_flux_fed","runoff_flux_fed","ocean_topaz_month","all",.false.,"none",2
#"ocean_model","runoff_flux_ldon","runoff_flux_ldon","ocean_topaz_month","all",.false.,"none",2
#"ocean_model","runoff_flux_lith","runoff_flux_lith","ocean_topaz_month","all",.false.,"none",2
#"ocean_model","runoff_flux_nh4","runoff_flux_nh4","ocean_topaz_month","all",.false.,"none",2
#"ocean_model","runoff_flux_no3","runoff_flux_no3","ocean_topaz_month","all",.false.,"none",2
#"ocean_model","sfc_flux_co2","sfc_flux_co2","ocean_topaz_month","all",.false.,"none",2
#"ocean_model","sfc_flux_o2","sfc_flux_o2","ocean_topaz_month","all",.false.,"none",2
#"ocean_model","sfc_flux_fed","sfc_flux_fed","ocean_topaz_month","all",.false.,"none",2
#"ocean_model","sfc_flux_lith","sfc_flux_lith","ocean_topaz_month","all",.false.,"none",2
#"ocean_model","sfc_flux_no3","sfc_flux_no3","ocean_topaz_month","all",.false.,"none",2
#"ocean_model","jfe_ads","jfe_ads","ocean_topaz_month","all",.false.,"none",2
#"ocean_model","jprod_Di","jprod_Di","ocean_topaz_month","all",.false.,"none",2
#"ocean_model","jprod_nhet","jprod_nhet","ocean_topaz_month","all",.false.,"none",2
#"ocean_model","jprod_no3_Sm","jprod_no3_Sm","ocean_topaz_month","all",.false.,"none",2
#"ocean_model","jprod_no3_Lg","jprod_no3_Lg","ocean_topaz_month","all",.false.,"none",2
#"ocean_model","jprod_nh4_Sm","jprod_nh4_Sm","ocean_topaz_month","all",.false.,"none",2
#"ocean_model","jprod_nh4_Lg","jprod_nh4_Lg","ocean_topaz_month","all",.false.,"none",2
#"ocean_model","jprod_po4_Lg","jprod_po4_Lg","ocean_topaz_month","all",.false.,"none",2
#"ocean_model","jprod_po4_Sm","jprod_po4_Sm","ocean_topaz_month","all",.false.,"none",2
#"ocean_model","jprod_fe_Sm","jprod_fe_Sm","ocean_topaz_month","all",.false.,"none",2
#"ocean_model","jprod_fe_Lg","jprod_fe_Lg","ocean_topaz_month","all",.false.,"none",2
#"ocean_model","jprod_fe_Di","jprod_fe_Di","ocean_topaz_month","all",.false.,"none",2
#"ocean_model","jo2","jo2","ocean_topaz_month","all",.false.,"none",2
#"ocean_model","fpofe","fpofe","ocean_topaz_month","all",.false.,"none",2
#"ocean_model","fpon","fpon","ocean_topaz_month","all",.false.,"none",2
#"ocean_model","fpop","fpop","ocean_topaz_month","all",.false.,"none",2
#"ocean_model","fsio2","fsio2","ocean_topaz_month","all",.false.,"none",2
#"ocean_model","fcaco3","fcaco3","ocean_topaz_month","all",.false.,"none",2
#"ocean_model","fcaco3_burial","fcaco3_burial","ocean_topaz_month","all",.false.,"none",2
#"ocean_model","fcaco3_redis","fcaco3_redis","ocean_topaz_month","all",.false.,"none",2
#"ocean_model","flith","flith","ocean_topaz_month","all",.false.,"none",2
#"ocean_model","flith_burial","flith_burial","ocean_topaz_month","all",.false.,"none",2
#==================================================================================
#
#
# RESIDENCY TIME FIELDS
#=============================================================================================
# ocean model grid quantities (static fields and so not time averaged))
#"ocean_model","geolon_t","geolon_t","","all",.false.,"none",2
#"ocean_model","geolat_t","geolat_t","","all",.false.,"none",2
#"ocean_model","geolon_c","geolon_c","","all",.false.,"none",2
#"ocean_model","geolat_c","geolat_c","","all",.false.,"none",2
#"ocean_model","area_t","area_t","","all",.false.,"none",2
#"ocean_model","area_u","area_u","","all",.false.,"none",2
#"ocean_model","ht","ht","","all",.false.,"none",2

#"ocean_model","geolon_t","geolon_t","ocean_residency_month","all",.false.,"none",2
#"ocean_model","geolat_t","geolat_t","ocean_residency_month","all",.false.,"none",2
#"ocean_model","geolon_c","geolon_c","ocean_residency_month","all",.false.,"none",2
#"ocean_model","geolat_c","geolat_c","ocean_residency_month","all",.false.,"none",2
#"ocean_model","area_t","area_t","ocean_residency_month","all",.false.,"none",2
#"ocean_model","area_u","area_u","ocean_residency_month","all",.false.,"none",2
#"ocean_model","ht","ht","ocean_residency_month","all",.false.,"none",2

#
#"ocean_model","residency_age_surface","residency_age_surface","","all",.false.,"none",2
#"ocean_model","residency_age_surface_inv","residency_age_surface_inv","","all",.false.,"none",2
#"ocean_model","residency_age_bottom","residency_age_bottom","","all",.false.,"none",2
#"ocean_model","residency_age_bottom_inv","residency_age_bottom_inv","","all",.false.,"none",2
#"ocean_model","residency_kppbl_nil","residency_kppbl_nil","","all",.false.,"none",2
#"ocean_model","residency_kppbl_14d","residency_kppbl_14d","","all",.false.,"none",2
#"ocean_model","residency_kppbl_frc","residency_kppbl_frc","","all",.false.,"none",2
#"ocean_model","residency_kppbl_irr_14d","residency_kppbl_irr_14d","","all",.false.,"none",2
#"ocean_model","residency_temp_15_20","residency_temp_15_20","","all",.false.,"none",2
#"ocean_model","residency_age_surface","residency_age_surface","ocean_residency_month","all",.false.,"none",2
#"ocean_model","residency_age_surface_inv","residency_age_surface_inv","ocean_residency_month","all",.false.,"none",2
#"ocean_model","residency_age_bottom","residency_age_bottom","ocean_residency_month","all",.false.,"none",2
#"ocean_model","residency_age_bottom_inv","residency_age_bottom_inv","ocean_residency_month","all",.false.,"none",2
#"ocean_model","residency_kppbl_nil","residency_kppbl_nil","ocean_residency_month","all",.false.,"none",2
#"ocean_model","residency_kppbl_14d","residency_kppbl_14d","ocean_residency_month","all",.false.,"none",2
#"ocean_model","residency_kppbl_frc","residency_kppbl_frc","ocean_residency_month","all",.false.,"none",2
#"ocean_model","residency_kppbl_irr_14d","residency_kppbl_irr_14d","ocean_residency_month","all",.false.,"none",2
#"ocean_model","residency_temp_15_20","residency_temp_15_20","ocean_residency_month","all",.false.,"none",2
#"ocean_residency","residency_change_age_surface","residency_change_age_surface","ocean_residency_month","all",.false.,"none",2
#"ocean_residency","residency_in_region_age_surface","residency_in_region_age_surface","ocean_residency_month","all",.false.,"none",2
#"ocean_residency","residency_change_age_surface_inv","residency_change_age_surface_inv","ocean_residency_month","all",.false.,"none",2