"prog_tracers","ocean_mod","temp"
horizontal-advection-scheme = mdppm
vertical-advection-scheme = mdppm
restart_file = ocean_temp_salt.res.nc
/
"prog_tracers","ocean_mod","salt"
horizontal-advection-scheme = mdfl_sweby
vertical-advection-scheme = mdfl_sweby
restart_file = ocean_temp_salt.res.nc
/

 "TRACER", "atmos_mod", "sphum"
           "longname",     "specific humidity"
           "units",        "kg/kg"
           "profile_type", "fixed", "surface_value=3.e-6" /
# sphum must be present on land as well
 "TRACER", "land_mod",     "sphum"
           "longname",     "specific humidity"
           "units",        "kg/kg" /
